#======================================================================

# CRYSTAL DATA

#----------------------------------------------------------------------

data_VESTA_phase_1


_chemical_name_common                  ''
_cell_length_a                         21.22200
_cell_length_b                         17.71600
_cell_length_c                         14.37600
_cell_angle_alpha                      90
_cell_angle_beta                       127.82100
_cell_angle_gamma                      90
_space_group_name_H-M_alt              'P 1'
_space_group_IT_number                 1

loop_
_space_group_symop_operation_xyz
   'x, y, z'

loop_
   _atom_site_label
   _atom_site_occupancy
   _atom_site_fract_x
   _atom_site_fract_y
   _atom_site_fract_z
   _atom_site_adp_type
   _atom_site_B_iso_or_equiv
   _atom_site_type_symbol
   Zn1        1.0     0.480660      0.500000      0.084970     Biso  1.000000 Zn
   Zn1        1.0     0.519340      0.500000      0.915030     Biso  1.000000 Zn
   Zn1        1.0     0.980660      0.000000      0.084970     Biso  1.000000 Zn
   Zn1        1.0     0.019340      0.000000      0.915030     Biso  1.000000 Zn
   Zn2        1.0     0.000000      0.104390      0.500000     Biso  1.000000 Zn
   Zn2        1.0     0.000000      0.895610      0.500000     Biso  1.000000 Zn
   Zn2        1.0     0.500000      0.604390      0.500000     Biso  1.000000 Zn
   Zn2        1.0     0.500000      0.395610      0.500000     Biso  1.000000 Zn
   N1         1.0     0.472200      0.500000      0.217700     Biso  1.000000 N
   N1         1.0     0.527800      0.500000      0.782300     Biso  1.000000 N
   N1         1.0     0.972200      0.000000      0.217700     Biso  1.000000 N
   N1         1.0     0.027800      0.000000      0.782300     Biso  1.000000 N
   N2         1.0     0.487000      0.462000      0.375900     Biso  1.000000 N
   N2         1.0     0.513000      0.538000      0.624100     Biso  1.000000 N
   N2         1.0     0.513000      0.462000      0.624100     Biso  1.000000 N
   N2         1.0     0.487000      0.538000      0.375900     Biso  1.000000 N
   N2         1.0     0.987000      0.962000      0.375900     Biso  1.000000 N
   N2         1.0     0.013000      0.038000      0.624100     Biso  1.000000 N
   N2         1.0     0.013000      0.962000      0.624100     Biso  1.000000 N
   N2         1.0     0.987000      0.038000      0.375900     Biso  1.000000 N
   O1         1.0     0.400200      0.422300      0.971800     Biso  1.000000 O
   O1         1.0     0.599800      0.577700      0.028200     Biso  1.000000 O
   O1         1.0     0.599800      0.422300      0.028200     Biso  1.000000 O
   O1         1.0     0.400200      0.577700      0.971800     Biso  1.000000 O
   O1         1.0     0.900200      0.922300      0.971800     Biso  1.000000 O
   O1         1.0     0.099800      0.077700      0.028200     Biso  1.000000 O
   O1         1.0     0.099800      0.922300      0.028200     Biso  1.000000 O
   O1         1.0     0.900200      0.077700      0.971800     Biso  1.000000 O
   O2         1.0     0.432200      0.420100      0.850900     Biso  1.000000 O
   O2         1.0     0.567800      0.579900      0.149100     Biso  1.000000 O
   O2         1.0     0.567800      0.420100      0.149100     Biso  1.000000 O
   O2         1.0     0.432200      0.579900      0.850900     Biso  1.000000 O
   O2         1.0     0.932200      0.920100      0.850900     Biso  1.000000 O
   O2         1.0     0.067800      0.079900      0.149100     Biso  1.000000 O
   O2         1.0     0.067800      0.920100      0.149100     Biso  1.000000 O
   O2         1.0     0.932200      0.079900      0.850900     Biso  1.000000 O
   O3         1.0     0.090300      0.173000      0.592400     Biso  1.000000 O
   O3         1.0     0.909700      0.827000      0.407600     Biso  1.000000 O
   O3         1.0     0.909700      0.173000      0.407600     Biso  1.000000 O
   O3         1.0     0.090300      0.827000      0.592400     Biso  1.000000 O
   O3         1.0     0.590300      0.673000      0.592400     Biso  1.000000 O
   O3         1.0     0.409700      0.327000      0.407600     Biso  1.000000 O
   O3         1.0     0.409700      0.673000      0.407600     Biso  1.000000 O
   O3         1.0     0.590300      0.327000      0.592400     Biso  1.000000 O
   O4         1.0     0.148300      0.137400      0.523200     Biso  1.000000 O
   O4         1.0     0.851700      0.862600      0.476800     Biso  1.000000 O
   O4         1.0     0.851700      0.137400      0.476800     Biso  1.000000 O
   O4         1.0     0.148300      0.862600      0.523200     Biso  1.000000 O
   O4         1.0     0.648300      0.637400      0.523200     Biso  1.000000 O
   O4         1.0     0.351700      0.362600      0.476800     Biso  1.000000 O
   O4         1.0     0.351700      0.637400      0.476800     Biso  1.000000 O
   O4         1.0     0.648300      0.362600      0.523200     Biso  1.000000 O
   H1         1.0     0.165800      0.091700      0.541000     Biso  1.000000 H
   H1         1.0     0.834200      0.908300      0.459000     Biso  1.000000 H
   H1         1.0     0.834200      0.091700      0.459000     Biso  1.000000 H
   H1         1.0     0.165800      0.908300      0.541000     Biso  1.000000 H
   H1         1.0     0.665800      0.591700      0.541000     Biso  1.000000 H
   H1         1.0     0.334200      0.408300      0.459000     Biso  1.000000 H
   H1         1.0     0.334200      0.591700      0.459000     Biso  1.000000 H
   H1         1.0     0.665800      0.408300      0.541000     Biso  1.000000 H
   C1         1.0     0.391700      0.399200      0.882500     Biso  1.000000 C
   C1         1.0     0.608300      0.600800      0.117500     Biso  1.000000 C
   C1         1.0     0.608300      0.399200      0.117500     Biso  1.000000 C
   C1         1.0     0.391700      0.600800      0.882500     Biso  1.000000 C
   C1         1.0     0.891700      0.899200      0.882500     Biso  1.000000 C
   C1         1.0     0.108300      0.100800      0.117500     Biso  1.000000 C
   C1         1.0     0.108300      0.899200      0.117500     Biso  1.000000 C
   C1         1.0     0.891700      0.100800      0.882500     Biso  1.000000 C
   C2         1.0     0.326900      0.341300      0.806700     Biso  1.000000 C
   C2         1.0     0.673100      0.658700      0.193300     Biso  1.000000 C
   C2         1.0     0.673100      0.341300      0.193300     Biso  1.000000 C
   C2         1.0     0.326900      0.658700      0.806700     Biso  1.000000 C
   C2         1.0     0.826900      0.841300      0.806700     Biso  1.000000 C
   C2         1.0     0.173100      0.158700      0.193300     Biso  1.000000 C
   C2         1.0     0.173100      0.841300      0.193300     Biso  1.000000 C
   C2         1.0     0.826900      0.158700      0.806700     Biso  1.000000 C
   C3         1.0     0.274000      0.322500      0.824500     Biso  1.000000 C
   C3         1.0     0.726000      0.677500      0.175500     Biso  1.000000 C
   C3         1.0     0.726000      0.322500      0.175500     Biso  1.000000 C
   C3         1.0     0.274000      0.677500      0.824500     Biso  1.000000 C
   C3         1.0     0.774000      0.822500      0.824500     Biso  1.000000 C
   C3         1.0     0.226000      0.177500      0.175500     Biso  1.000000 C
   C3         1.0     0.226000      0.822500      0.175500     Biso  1.000000 C
   C3         1.0     0.774000      0.177500      0.824500     Biso  1.000000 C
   H3         1.0     0.276500      0.345800      0.884700     Biso  1.000000 H
   H3         1.0     0.723500      0.654200      0.115300     Biso  1.000000 H
   H3         1.0     0.723500      0.345800      0.115300     Biso  1.000000 H
   H3         1.0     0.276500      0.654200      0.884700     Biso  1.000000 H
   H3         1.0     0.776500      0.845800      0.884700     Biso  1.000000 H
   H3         1.0     0.223500      0.154200      0.115300     Biso  1.000000 H
   H3         1.0     0.223500      0.845800      0.115300     Biso  1.000000 H
   H3         1.0     0.776500      0.154200      0.884700     Biso  1.000000 H
   C4         1.0     0.215200      0.268800      0.754400     Biso  1.000000 C
   C4         1.0     0.784800      0.731200      0.245600     Biso  1.000000 C
   C4         1.0     0.784800      0.268800      0.245600     Biso  1.000000 C
   C4         1.0     0.215200      0.731200      0.754400     Biso  1.000000 C
   C4         1.0     0.715200      0.768800      0.754400     Biso  1.000000 C
   C4         1.0     0.284800      0.231200      0.245600     Biso  1.000000 C
   C4         1.0     0.284800      0.768800      0.245600     Biso  1.000000 C
   C4         1.0     0.715200      0.231200      0.754400     Biso  1.000000 C
   H4         1.0     0.181000      0.255100      0.771500     Biso  1.000000 H
   H4         1.0     0.819000      0.744900      0.228500     Biso  1.000000 H
   H4         1.0     0.819000      0.255100      0.228500     Biso  1.000000 H
   H4         1.0     0.181000      0.744900      0.771500     Biso  1.000000 H
   H4         1.0     0.681000      0.755100      0.771500     Biso  1.000000 H
   H4         1.0     0.319000      0.244900      0.228500     Biso  1.000000 H
   H4         1.0     0.319000      0.755100      0.228500     Biso  1.000000 H
   H4         1.0     0.681000      0.244900      0.771500     Biso  1.000000 H
   C5         1.0     0.206600      0.236400      0.663800     Biso  1.000000 C
   C5         1.0     0.793400      0.763600      0.336200     Biso  1.000000 C
   C5         1.0     0.793400      0.236400      0.336200     Biso  1.000000 C
   C5         1.0     0.206600      0.763600      0.663800     Biso  1.000000 C
   C5         1.0     0.706600      0.736400      0.663800     Biso  1.000000 C
   C5         1.0     0.293400      0.263600      0.336200     Biso  1.000000 C
   C5         1.0     0.293400      0.736400      0.336200     Biso  1.000000 C
   C5         1.0     0.706600      0.263600      0.663800     Biso  1.000000 C
   C6         1.0     0.264900      0.251000      0.651100     Biso  1.000000 C
   C6         1.0     0.735100      0.749000      0.348900     Biso  1.000000 C
   C6         1.0     0.735100      0.251000      0.348900     Biso  1.000000 C
   C6         1.0     0.264900      0.749000      0.651100     Biso  1.000000 C
   C6         1.0     0.764900      0.751000      0.651100     Biso  1.000000 C
   C6         1.0     0.235100      0.249000      0.348900     Biso  1.000000 C
   C6         1.0     0.235100      0.751000      0.348900     Biso  1.000000 C
   C6         1.0     0.764900      0.249000      0.651100     Biso  1.000000 C
   H6         1.0     0.265300      0.223700      0.596300     Biso  1.000000 H
   H6         1.0     0.734700      0.776300      0.403700     Biso  1.000000 H
   H6         1.0     0.734700      0.223700      0.403700     Biso  1.000000 H
   H6         1.0     0.265300      0.776300      0.596300     Biso  1.000000 H
   H6         1.0     0.765300      0.723700      0.596300     Biso  1.000000 H
   H6         1.0     0.234700      0.276300      0.403700     Biso  1.000000 H
   H6         1.0     0.234700      0.723700      0.403700     Biso  1.000000 H
   H6         1.0     0.765300      0.276300      0.596300     Biso  1.000000 H
   C7         1.0     0.321700      0.304700      0.717300     Biso  1.000000 C
   C7         1.0     0.678300      0.695300      0.282700     Biso  1.000000 C
   C7         1.0     0.678300      0.304700      0.282700     Biso  1.000000 C
   C7         1.0     0.321700      0.695300      0.717300     Biso  1.000000 C
   C7         1.0     0.821700      0.804700      0.717300     Biso  1.000000 C
   C7         1.0     0.178300      0.195300      0.282700     Biso  1.000000 C
   C7         1.0     0.178300      0.804700      0.282700     Biso  1.000000 C
   C7         1.0     0.821700      0.195300      0.717300     Biso  1.000000 C
   H7         1.0     0.357300      0.316800      0.702200     Biso  1.000000 H
   H7         1.0     0.642700      0.683200      0.297800     Biso  1.000000 H
   H7         1.0     0.642700      0.316800      0.297800     Biso  1.000000 H
   H7         1.0     0.357300      0.683200      0.702200     Biso  1.000000 H
   H7         1.0     0.857300      0.816800      0.702200     Biso  1.000000 H
   H7         1.0     0.142700      0.183200      0.297800     Biso  1.000000 H
   H7         1.0     0.142700      0.816800      0.297800     Biso  1.000000 H
   H7         1.0     0.857300      0.183200      0.702200     Biso  1.000000 H
   C8         1.0     0.141600      0.180100      0.585100     Biso  1.000000 C
   C8         1.0     0.858400      0.819900      0.414900     Biso  1.000000 C
   C8         1.0     0.858400      0.180100      0.414900     Biso  1.000000 C
   C8         1.0     0.141600      0.819900      0.585100     Biso  1.000000 C
   C8         1.0     0.641600      0.680100      0.585100     Biso  1.000000 C
   C8         1.0     0.358400      0.319900      0.414900     Biso  1.000000 C
   C8         1.0     0.358400      0.680100      0.414900     Biso  1.000000 C
   C8         1.0     0.641600      0.319900      0.585100     Biso  1.000000 C
   C9         1.0     0.477100      0.440200      0.279000     Biso  1.000000 C
   C9         1.0     0.522900      0.559800      0.721000     Biso  1.000000 C
   C9         1.0     0.522900      0.440200      0.721000     Biso  1.000000 C
   C9         1.0     0.477100      0.559800      0.279000     Biso  1.000000 C
   C9         1.0     0.977100      0.940200      0.279000     Biso  1.000000 C
   C9         1.0     0.022900      0.059800      0.721000     Biso  1.000000 C
   C9         1.0     0.022900      0.940200      0.721000     Biso  1.000000 C
   C9         1.0     0.977100      0.059800      0.279000     Biso  1.000000 C
   C10        1.0     0.471900      0.360500      0.243100     Biso  1.000000 C
   C10        1.0     0.528100      0.639500      0.756900     Biso  1.000000 C
   C10        1.0     0.528100      0.360500      0.756900     Biso  1.000000 C
   C10        1.0     0.471900      0.639500      0.243100     Biso  1.000000 C
   C10        1.0     0.971900      0.860500      0.243100     Biso  1.000000 C
   C10        1.0     0.028100      0.139500      0.756900     Biso  1.000000 C
   C10        1.0     0.028100      0.860500      0.756900     Biso  1.000000 C
   C10        1.0     0.971900      0.139500      0.243100     Biso  1.000000 C
   H10        1.0     0.517600      0.333200      0.306400     Biso  1.000000 H
   H10        1.0     0.482400      0.666800      0.693600     Biso  1.000000 H
   H10        1.0     0.482400      0.333200      0.693600     Biso  1.000000 H
   H10        1.0     0.517600      0.666800      0.306400     Biso  1.000000 H
   H10        1.0     0.017600      0.833200      0.306400     Biso  1.000000 H
   H10        1.0     0.982400      0.166800      0.693600     Biso  1.000000 H
   H10        1.0     0.982400      0.833200      0.693600     Biso  1.000000 H
   H10        1.0     0.017600      0.166800      0.306400     Biso  1.000000 H
   H11        1.0     0.470400      0.358800      0.175000     Biso  1.000000 H
   H11        1.0     0.529600      0.641200      0.825000     Biso  1.000000 H
   H11        1.0     0.529600      0.358800      0.825000     Biso  1.000000 H
   H11        1.0     0.470400      0.641200      0.175000     Biso  1.000000 H
   H11        1.0     0.970400      0.858800      0.175000     Biso  1.000000 H
   H11        1.0     0.029600      0.141200      0.825000     Biso  1.000000 H
   H11        1.0     0.029600      0.858800      0.825000     Biso  1.000000 H
   H11        1.0     0.970400      0.141200      0.175000     Biso  1.000000 H
   H12        1.0     0.424300      0.337900      0.224500     Biso  1.000000 H
   H12        1.0     0.575700      0.662100      0.775500     Biso  1.000000 H
   H12        1.0     0.575700      0.337900      0.775500     Biso  1.000000 H
   H12        1.0     0.424300      0.662100      0.224500     Biso  1.000000 H
   H12        1.0     0.924300      0.837900      0.224500     Biso  1.000000 H
   H12        1.0     0.075700      0.162100      0.775500     Biso  1.000000 H
   H12        1.0     0.075700      0.837900      0.775500     Biso  1.000000 H
   H12        1.0     0.924300      0.162100      0.224500     Biso  1.000000 H
